************************************************************************
* auCdl Netlist:
* 
* Library Name:  Z11_RAM8Mb_8_16_32_OO_161219
* Top Cell Name: RingPad
* View Name:     schematic
* Netlisted on:  May  5 21:53:08 2020
************************************************************************

*.EQUATION
*.SCALE METER
*.MEGA
.PARAM

*.GLOBAL vdd!
+        gnd!
+        GND_PAD!
+        VDD_PAD!

*.PIN vdd!
*+    gnd!
*+    GND_PAD!
*+    VDD_PAD!

************************************************************************
* Library Name: Z11_RAM8Mb_8_16_32_OO_161219
* Cell Name:    RingPad_NOR
* View Name:    schematic
************************************************************************

.SUBCKT RingPad_NOR In1 In2 Out
*.PININFO In1:I In2:I Out:O
MM8 Out In1 gnd! gnd! nmos_a W=1.2u L=240n W_CONT=600n NFING=1
MM6 Out In2 gnd! gnd! nmos_a W=1.2u L=240n W_CONT=600n NFING=1
MM5 net11 In1 vdd! vdd! pmos_a W=2.4u L=240n W_CONT=600n NFING=1
MM7 Out In2 net11 net11 pmos_a W=2.4u L=240n W_CONT=600n NFING=1
.ENDS

************************************************************************
* Library Name: Z11_RAM8Mb_8_16_32_OO_161219
* Cell Name:    RingPad_EOR
* View Name:    schematic
************************************************************************

.SUBCKT RingPad_EOR in1 in2 out
*.PININFO in1:I in2:I out:O
MM1 net9 in2 gnd! gnd! nmos_a W=1.2u L=240n W_CONT=600n NFING=1
MM2 net12 in1 net9 net9 nmos_a W=1.2u L=240n W_CONT=600n NFING=1
MM7 net15 in2 gnd! gnd! nmos_a W=1.2u L=240n W_CONT=600n NFING=2
MM8 net21 net12 net15 net15 nmos_a W=1.2u L=240n W_CONT=600n NFING=2
MM9 net15 in1 gnd! gnd! nmos_a W=1.2u L=240n W_CONT=600n NFING=2
MM11 out net21 gnd! gnd! nmos_a W=2.4u L=240n W_CONT=1.1u NFING=2
MM6 net12 in1 vdd! vdd! pmos_a W=1.2u L=240n W_CONT=600n NFING=1
MM0 net12 in2 vdd! vdd! pmos_a W=1.2u L=240n W_CONT=600n NFING=1
MM3 net32 in1 vdd! vdd! pmos_a W=2.4u L=240n W_CONT=600n NFING=2
MM4 net21 in2 net32 net32 pmos_a W=2.4u L=240n W_CONT=600n NFING=2
MM5 net21 net12 vdd! vdd! pmos_a W=2.4u L=240n W_CONT=600n NFING=1
MM10 out net21 vdd! vdd! pmos_a W=2.4u L=240n W_CONT=600n NFING=4
.ENDS

************************************************************************
* Library Name: Z11_RAM8Mb_8_16_32_OO_161219
* Cell Name:    PAD
* View Name:    schematic
************************************************************************

.SUBCKT PAD In PAD gnd1 gnd2 vdd1 vdd2
*.PININFO In:O PAD:B gnd1:B gnd2:B vdd1:B vdd2:B
RI90 In PAD 301.1714 $[rnpoly] $W=4u $L=10u M=1
DI3<1> PAD vdd1 dn 0 200u m=1
DI3<2> PAD vdd1 dn 0 200u m=1
DI3<3> PAD vdd1 dn 0 200u m=1
DI3<4> PAD vdd1 dn 0 200u m=1
DI3<5> PAD vdd1 dn 0 200u m=1
DI3<6> PAD vdd1 dn 0 200u m=1
DI3<7> PAD vdd1 dn 0 200u m=1
DI3<8> PAD vdd1 dn 0 200u m=1
DI3<9> PAD vdd1 dn 0 200u m=1
DI3<10> PAD vdd1 dn 0 200u m=1
DI3<11> PAD vdd1 dn 0 200u m=1
DI3<12> PAD vdd1 dn 0 200u m=1
DI3<13> PAD vdd1 dn 0 200u m=1
DI3<14> PAD vdd1 dn 0 200u m=1
DI3<15> PAD vdd1 dn 0 200u m=1
DI3<16> PAD vdd1 dn 0 200u m=1
DI3<17> PAD vdd1 dn 0 200u m=1
DI3<18> PAD vdd1 dn 0 200u m=1
DI3<19> PAD vdd1 dn 0 200u m=1
DI3<20> PAD vdd1 dn 0 200u m=1
DI3<21> PAD vdd1 dn 0 200u m=1
DI3<22> PAD vdd1 dn 0 200u m=1
DI3<23> PAD vdd1 dn 0 200u m=1
DI3<24> PAD vdd1 dn 0 200u m=1
DI3<25> PAD vdd1 dn 0 200u m=1
DI3<26> PAD vdd1 dn 0 200u m=1
DI2<1> gnd2 In dn 0 5u m=1
DI2<2> gnd2 In dn 0 5u m=1
DI5<1> gnd1 PAD dn 0 100u m=1
DI5<2> gnd1 PAD dn 0 100u m=1
DI5<3> gnd1 PAD dn 0 100u m=1
DI5<4> gnd1 PAD dn 0 100u m=1
DI5<5> gnd1 PAD dn 0 100u m=1
DI5<6> gnd1 PAD dn 0 100u m=1
DI5<7> gnd1 PAD dn 0 100u m=1
DI5<8> gnd1 PAD dn 0 100u m=1
DI5<9> gnd1 PAD dn 0 100u m=1
DI5<10> gnd1 PAD dn 0 100u m=1
DI5<11> gnd1 PAD dn 0 100u m=1
DI5<12> gnd1 PAD dn 0 100u m=1
DI6<1> PAD vdd1 dn 0 100u m=1
DI6<2> PAD vdd1 dn 0 100u m=1
DI6<3> PAD vdd1 dn 0 100u m=1
DI6<4> PAD vdd1 dn 0 100u m=1
DI6<5> PAD vdd1 dn 0 100u m=1
DI6<6> PAD vdd1 dn 0 100u m=1
DI6<7> PAD vdd1 dn 0 100u m=1
DI6<8> PAD vdd1 dn 0 100u m=1
DI6<9> PAD vdd1 dn 0 100u m=1
DI6<10> PAD vdd1 dn 0 100u m=1
DI6<11> PAD vdd1 dn 0 100u m=1
DI6<12> PAD vdd1 dn 0 100u m=1
DI4<1> gnd1 PAD dn 0 200u m=1
DI4<2> gnd1 PAD dn 0 200u m=1
DI4<3> gnd1 PAD dn 0 200u m=1
DI4<4> gnd1 PAD dn 0 200u m=1
DI4<5> gnd1 PAD dn 0 200u m=1
DI4<6> gnd1 PAD dn 0 200u m=1
DI4<7> gnd1 PAD dn 0 200u m=1
DI4<8> gnd1 PAD dn 0 200u m=1
DI4<9> gnd1 PAD dn 0 200u m=1
DI4<10> gnd1 PAD dn 0 200u m=1
DI4<11> gnd1 PAD dn 0 200u m=1
DI4<12> gnd1 PAD dn 0 200u m=1
DI4<13> gnd1 PAD dn 0 200u m=1
DI4<14> gnd1 PAD dn 0 200u m=1
DI4<15> gnd1 PAD dn 0 200u m=1
DI4<16> gnd1 PAD dn 0 200u m=1
DI4<17> gnd1 PAD dn 0 200u m=1
DI4<18> gnd1 PAD dn 0 200u m=1
DI4<19> gnd1 PAD dn 0 200u m=1
DI4<20> gnd1 PAD dn 0 200u m=1
DI4<21> gnd1 PAD dn 0 200u m=1
DI4<22> gnd1 PAD dn 0 200u m=1
DI4<23> gnd1 PAD dn 0 200u m=1
DI4<24> gnd1 PAD dn 0 200u m=1
DI4<25> gnd1 PAD dn 0 200u m=1
DI4<26> gnd1 PAD dn 0 200u m=1
DI1<1> In vdd2 dn 0 5u m=1
DI1<2> In vdd2 dn 0 5u m=1
.ENDS

************************************************************************
* Library Name: Z11_RAM8Mb_8_16_32_OO_161219
* Cell Name:    PADIN_Adress_Select
* View Name:    schematic
************************************************************************

.SUBCKT PADIN_Adress_Select A Adr nATD nClk nSelect1 nSelect2
*.PININFO A:I nClk:I nSelect1:I nSelect2:I Adr:O nATD:O
XI98 net310 A gnd! gnd! vdd! vdd! / PAD
MI53 gnd! vdd! gnd! cpoly_p W=174u L=2u
MI46 vdd! gnd! vdd! cpoly_n W=216u L=2u
MM8 net258 net310 gnd! gnd! nmos_a W=1.2u L=240n W_CONT=600n NFING=1
MM13 net255 net258 gnd! gnd! nmos_a W=2.4u L=240n W_CONT=1.1u NFING=1
MM41 net252 nClk gnd! gnd! nmos_a W=1.2u L=240n W_CONT=600n NFING=1
MM12 net274 net246 net255 net255 nmos_a W=2.4u L=240n W_CONT=1.1u NFING=1
MM39 net246 net252 gnd! gnd! nmos_a W=1.2u L=240n W_CONT=600n NFING=1
MM22 net243 net258 gnd! gnd! nmos_a W=480n L=240n W_CONT=600n NFING=1
MM20 net237 net243 net231 net231 nmos_a W=1.2u L=240n W_CONT=600n NFING=1
MM25 net237 net258 net234 net234 nmos_a W=1.2u L=240n W_CONT=600n NFING=1
MM26 net234 net233 gnd! gnd! nmos_a W=1.2u L=240n W_CONT=600n NFING=1
MM19 net231 net274 gnd! gnd! nmos_a W=1.2u L=240n W_CONT=600n NFING=1
MM16 net233 net274 gnd! gnd! nmos_a W=1.2u L=240n W_CONT=600n NFING=1
MM28 net274 net252 net222 net222 nmos_a W=1.2u L=240n W_CONT=600n NFING=1
MM37 net222 net233 gnd! gnd! nmos_a W=1.2u L=240n W_CONT=600n NFING=1
MM30 net219 net274 gnd! gnd! nmos_a W=3.6u L=240n W_CONT=1.6u NFING=2
MM32 Adr net219 gnd! gnd! nmos_a W=7.2u L=240n W_CONT=3.1u NFING=8
MM15 net0137 net0134 gnd! gnd! nmos_a W=1.2u L=240n W_CONT=600n NFING=1
MM4 net0134 nSelect2 gnd! gnd! nmos_a W=500n L=240n W_CONT=600n NFING=1
MM42 nATD net0191 gnd! gnd! nmos_a W=3.6u L=240n W_CONT=1.6u NFING=1
MM35 net237 net0134 net0191 net0191 nmos_a W=1.2u L=240n W_CONT=600n NFING=1
MM34 net0191 net0137 gnd! gnd! nmos_a W=1.2u L=240n W_CONT=600n NFING=1
MM5 net0134 nSelect1 gnd! gnd! nmos_a W=500n L=240n W_CONT=600n NFING=1
MM38 net246 net252 vdd! vdd! pmos_a W=2u L=240n W_CONT=600n NFING=1
MM7 net258 net310 net0156 net0156 pmos_a W=4u L=240n W_CONT=600n NFING=1
MM40 net252 nClk vdd! vdd! pmos_a W=2u L=240n W_CONT=600n NFING=1
MM10 net293 net258 vdd! vdd! pmos_a W=4u L=240n W_CONT=600n NFING=1
MM11 net274 net252 net293 net293 pmos_a W=4u L=240n W_CONT=600n NFING=1
MM21 net243 net258 vdd! vdd! pmos_a W=1u L=240n W_CONT=600n NFING=1
MM17 net237 net243 net287 net287 pmos_a W=2u L=240n W_CONT=600n NFING=1
MM24 net237 net258 net284 net284 pmos_a W=2u L=240n W_CONT=600n NFING=1
MM18 net287 net233 vdd! vdd! pmos_a W=2u L=240n W_CONT=600n NFING=1
MM14 net233 net274 vdd! vdd! pmos_a W=2u L=240n W_CONT=600n NFING=1
MM23 net284 net274 vdd! vdd! pmos_a W=2u L=240n W_CONT=600n NFING=1
MM27 net274 net246 net272 net272 pmos_a W=2u L=240n W_CONT=600n NFING=1
MM29 net219 net274 vdd! vdd! pmos_a W=5.76u L=240n W_CONT=1.1u NFING=2
MM36 net272 net233 vdd! vdd! pmos_a W=2u L=240n W_CONT=600n NFING=1
MM31 Adr net219 vdd! vdd! pmos_a W=11u L=240n W_CONT=1.6u NFING=8
MM1 net0156 net243 vdd! vdd! pmos_a W=4u L=240n W_CONT=600n NFING=1
MM0 net0156 net0156 vdd! vdd! pmos_a W=2u L=240n W_CONT=600n NFING=2
MM33 net0191 net0137 net237 net237 pmos_a W=2u L=240n W_CONT=600n NFING=1
MM3 net0134 nSelect2 net0187 net0187 pmos_a W=2u L=240n W_CONT=600n NFING=1
MM43 nATD net0191 vdd! vdd! pmos_a W=5.76u L=240n W_CONT=1.1u NFING=1
MM2 net0187 nSelect1 vdd! vdd! pmos_a W=2u L=240n W_CONT=600n NFING=1
MM9 net0137 net0134 vdd! vdd! pmos_a W=2u L=240n W_CONT=600n NFING=1
.ENDS

************************************************************************
* Library Name: Z11_RAM8Mb_8_16_32_OO_161219
* Cell Name:    PADIN_CS
* View Name:    schematic
************************************************************************

.SUBCKT PADIN_CS CS nCS nE
*.PININFO CS:I nE:I nCS:O
XI98 net4 CS gnd! gnd! vdd! vdd! / PAD
MI53 gnd! vdd! gnd! cpoly_p W=216u L=2u
MI46 vdd! gnd! vdd! cpoly_n W=336u L=2u
MM4 net051 net056 gnd! gnd! nmos_a W=1u L=240n W_CONT=600n NFING=1
MM0 net078 net4 net051 net051 nmos_a W=1u L=240n W_CONT=600n NFING=1
MM17 net044 net069 gnd! gnd! nmos_a W=1u L=240n W_CONT=600n NFING=1
MM18 net056 nE gnd! gnd! nmos_a W=500n L=240n W_CONT=600n NFING=1
MM8 net040 net044 gnd! gnd! nmos_a W=2.4u L=240n W_CONT=1.1u NFING=2
MM10 nCS net040 gnd! gnd! nmos_a W=2.4u L=240n W_CONT=1.1u NFING=8
MM12 net069 net078 gnd! gnd! nmos_a W=500n L=240n W_CONT=600n NFING=1
MM5 net078 net056 vdd! vdd! pmos_a W=480n L=240n W_CONT=600n NFING=1
MM1 net27 net27 vdd! vdd! pmos_a W=1u L=240n W_CONT=600n NFING=1
MM2 net078 net4 net27 net27 pmos_a W=1u L=240n W_CONT=600n NFING=1
MM3 net27 net069 vdd! vdd! pmos_a W=480n L=400n W_CONT=600n NFING=1
MM7 net040 net044 vdd! vdd! pmos_a W=4.5u L=240n W_CONT=600n NFING=2
MM9 nCS net040 vdd! vdd! pmos_a W=4.5u L=240n W_CONT=600n NFING=8
MM14 net044 net069 vdd! vdd! pmos_a W=2u L=240n W_CONT=600n NFING=1
MM19 net056 nE vdd! vdd! pmos_a W=1u L=240n W_CONT=600n NFING=1
MM13 net069 net078 vdd! vdd! pmos_a W=1u L=240n W_CONT=600n NFING=1
.ENDS

************************************************************************
* Library Name: Z11_RAM8Mb_8_16_32_OO_161219
* Cell Name:    GND_Core_PAD
* View Name:    schematic
************************************************************************

.SUBCKT GND_Core_PAD GND_PAD VDD_PAD
*.PININFO GND_PAD:B VDD_PAD:B
MI7 vdd! gnd! vdd! cpoly_n W=357.24u L=2u
MI8 gnd! vdd! gnd! cpoly_p W=336.18u L=2u
DI10 GND_PAD gnd! dn 0 410u m=18
DI9 gnd! vdd! dn 0 410u m=19
.ENDS

************************************************************************
* Library Name: Z11_RAM8Mb_8_16_32_OO_161219
* Cell Name:    VDD_Core
* View Name:    schematic
************************************************************************

.SUBCKT VDD_Core
*.PININFO
MI2 gnd! vdd! gnd! cpoly_p W=336.18u L=2u
MI7 vdd! gnd! vdd! cpoly_n W=357.24u L=2u
DI1 gnd! vdd! dn 0 410u m=37
.ENDS

************************************************************************
* Library Name: Z11_RAM8Mb_8_16_32_OO_161219
* Cell Name:    GND_Core
* View Name:    schematic
************************************************************************

.SUBCKT GND_Core
*.PININFO
MI8 gnd! vdd! gnd! cpoly_p W=336.18u L=2u
MI7 vdd! gnd! vdd! cpoly_n W=357.24u L=2u
DI9 gnd! vdd! dn 0 410u m=37
.ENDS

************************************************************************
* Library Name: Z11_RAM8Mb_8_16_32_OO_161219
* Cell Name:    NOT
* View Name:    schematic
************************************************************************

.SUBCKT NOT In Out
*.PININFO In:I Out:O
MM1 Out In gnd! gnd! nmos_a W=480n L=240n W_CONT=600n NFING=1
MM0 Out In vdd! vdd! pmos_a W=1u L=240n W_CONT=600n NFING=1
.ENDS

************************************************************************
* Library Name: Z11_RAM8Mb_8_16_32_OO_161219
* Cell Name:    PADIN_CE
* View Name:    schematic
************************************************************************

.SUBCKT PADIN_CE CE CEN CS nATD1 nATD2 nATD3 nATD4 nClk
*.PININFO CEN:I CS:I nATD1:I nATD2:I nATD3:I nATD4:I CE:O nClk:O
XI38 Shmit nShmit / NOT
XI92 CS nCS / NOT
XI98 net72 CEN gnd! gnd! vdd! vdd! / PAD
MI46 vdd! gnd! vdd! cpoly_n W=318u L=2u
MI53 gnd! vdd! gnd! cpoly_p W=216u L=2u
MM35 net069 nATD1 gnd! gnd! nmos_a W=1.2u L=240n W_CONT=600n NFING=1
MM6 net070 nATD2 net069 net069 nmos_a W=1.2u L=240n W_CONT=600n NFING=1
MM28 net0143 net062 gnd! gnd! nmos_a W=3.6u L=240n W_CONT=1.6u NFING=1
MM30 nand3 CE_Shmit net0140 net0140 nmos_a W=3.6u L=240n W_CONT=1.6u NFING=1
MM29 net0140 CE net0143 net0143 nmos_a W=3.6u L=240n W_CONT=1.6u NFING=1
MM26 Clk nand3 gnd! gnd! nmos_a W=2.4u L=240n W_CONT=1.1u NFING=4
MM21 CE_Shmit nShmit gnd! gnd! nmos_a W=1.2u L=240n W_CONT=600n NFING=1
MM22 net013 nATD4 net0119 net0119 nmos_a W=1.2u L=240n W_CONT=600n NFING=1
MM23 CE_Shmit nCS gnd! gnd! nmos_a W=1.2u L=240n W_CONT=600n NFING=1
MM14 CE nCE gnd! gnd! nmos_a W=2.4u L=240n W_CONT=1.1u NFING=8
MM0 Shmit net72 gnd! gnd! nmos_a W=480n L=240n W_CONT=600n NFING=1
MM32 nClk Clk gnd! gnd! nmos_a W=2.4u L=240n W_CONT=1.1u NFING=14
MM16 net0119 nATD3 net070 net070 nmos_a W=1.2u L=240n W_CONT=600n NFING=1
MM17 net062 net013 gnd! gnd! nmos_a W=1.2u L=240n W_CONT=600n NFING=1
MM33 nCE CE_Shmit gnd! gnd! nmos_a W=2.4u L=240n W_CONT=1.1u NFING=2
MM5 nand3 net062 vdd! vdd! pmos_a W=2.2u L=240n W_CONT=600n NFING=1
MM25 Clk nand3 vdd! vdd! pmos_a W=4.5u L=240n W_CONT=600n NFING=4
MM24 net0162 nCS vdd! vdd! pmos_a W=2.88u L=240n W_CONT=600n NFING=1
MM4 nand3 CE vdd! vdd! pmos_a W=2.2u L=240n W_CONT=600n NFING=1
MM15 CE_Shmit nShmit net0162 net0162 pmos_a W=2.88u L=240n W_CONT=600n NFING=1
MM27 nand3 CE_Shmit vdd! vdd! pmos_a W=2.2u L=240n W_CONT=600n NFING=1
MM20 net013 nATD4 vdd! vdd! pmos_a W=1u L=240n W_CONT=600n NFING=1
MM19 net013 nATD3 vdd! vdd! pmos_a W=1u L=240n W_CONT=600n NFING=1
MM7 net013 nATD2 vdd! vdd! pmos_a W=1u L=240n W_CONT=600n NFING=1
MM1 net50 net72 vdd! vdd! pmos_a W=1u L=240n W_CONT=600n NFING=1
MM2 Shmit net72 net50 net50 pmos_a W=1u L=240n W_CONT=600n NFING=1
MM3 net50 nShmit vdd! vdd! pmos_a W=480n L=400n W_CONT=600n NFING=1
MM31 nClk Clk vdd! vdd! pmos_a W=4.5u L=240n W_CONT=600n NFING=14
MM13 CE nCE vdd! vdd! pmos_a W=4.5u L=240n W_CONT=600n NFING=8
MM12 net062 net013 vdd! vdd! pmos_a W=2u L=240n W_CONT=600n NFING=1
MM34 nCE CE_Shmit vdd! vdd! pmos_a W=4u L=240n W_CONT=600n NFING=2
MM8 net013 nATD1 vdd! vdd! pmos_a W=1u L=240n W_CONT=600n NFING=1
.ENDS

************************************************************************
* Library Name: Z11_RAM8Mb_8_16_32_OO_161219
* Cell Name:    PADIN_Adress
* View Name:    schematic
************************************************************************

.SUBCKT PADIN_Adress A Adr nATD nClk
*.PININFO A:I nClk:I Adr:O nATD:O
XI98 net310 A gnd! gnd! vdd! vdd! / PAD
MI53 gnd! vdd! gnd! cpoly_p W=174u L=2u
MI46 vdd! gnd! vdd! cpoly_n W=216u L=2u
MM8 net258 net310 gnd! gnd! nmos_a W=1.2u L=240n W_CONT=600n NFING=1
MM13 net255 net258 gnd! gnd! nmos_a W=2.4u L=240n W_CONT=1.1u NFING=1
MM41 net252 nClk gnd! gnd! nmos_a W=1.2u L=240n W_CONT=600n NFING=1
MM12 net274 net246 net255 net255 nmos_a W=2.4u L=240n W_CONT=1.1u NFING=1
MM39 net246 net252 gnd! gnd! nmos_a W=1.2u L=240n W_CONT=600n NFING=1
MM22 net243 net258 gnd! gnd! nmos_a W=480n L=240n W_CONT=600n NFING=1
MM20 net237 net243 net231 net231 nmos_a W=1.2u L=240n W_CONT=600n NFING=1
MM25 net237 net258 net234 net234 nmos_a W=1.2u L=240n W_CONT=600n NFING=1
MM26 net234 net233 gnd! gnd! nmos_a W=1.2u L=240n W_CONT=600n NFING=1
MM19 net231 net274 gnd! gnd! nmos_a W=1.2u L=240n W_CONT=600n NFING=1
MM16 net233 net274 gnd! gnd! nmos_a W=1.2u L=240n W_CONT=600n NFING=1
MM28 net274 net252 net222 net222 nmos_a W=1.2u L=240n W_CONT=600n NFING=1
MM37 net222 net233 gnd! gnd! nmos_a W=1.2u L=240n W_CONT=600n NFING=1
MM30 net219 net274 gnd! gnd! nmos_a W=3.6u L=240n W_CONT=1.6u NFING=2
MM32 Adr net219 gnd! gnd! nmos_a W=7.2u L=240n W_CONT=3.1u NFING=8
MM35 nATD net237 gnd! gnd! nmos_a W=3.6u L=240n W_CONT=1.6u NFING=1
MM38 net246 net252 vdd! vdd! pmos_a W=2u L=240n W_CONT=600n NFING=1
MM7 net258 net310 net0156 net0156 pmos_a W=4u L=240n W_CONT=600n NFING=1
MM40 net252 nClk vdd! vdd! pmos_a W=2u L=240n W_CONT=600n NFING=1
MM10 net293 net258 vdd! vdd! pmos_a W=4u L=240n W_CONT=600n NFING=1
MM11 net274 net252 net293 net293 pmos_a W=4u L=240n W_CONT=600n NFING=1
MM21 net243 net258 vdd! vdd! pmos_a W=1u L=240n W_CONT=600n NFING=1
MM17 net237 net243 net287 net287 pmos_a W=2u L=240n W_CONT=600n NFING=1
MM24 net237 net258 net284 net284 pmos_a W=2u L=240n W_CONT=600n NFING=1
MM18 net287 net233 vdd! vdd! pmos_a W=2u L=240n W_CONT=600n NFING=1
MM14 net233 net274 vdd! vdd! pmos_a W=2u L=240n W_CONT=600n NFING=1
MM23 net284 net274 vdd! vdd! pmos_a W=2u L=240n W_CONT=600n NFING=1
MM27 net274 net246 net272 net272 pmos_a W=2u L=240n W_CONT=600n NFING=1
MM29 net219 net274 vdd! vdd! pmos_a W=5.76u L=240n W_CONT=1.1u NFING=2
MM36 net272 net233 vdd! vdd! pmos_a W=2u L=240n W_CONT=600n NFING=1
MM31 Adr net219 vdd! vdd! pmos_a W=11u L=240n W_CONT=1.6u NFING=8
MM1 net0156 net243 vdd! vdd! pmos_a W=4u L=240n W_CONT=600n NFING=1
MM0 net0156 net0156 vdd! vdd! pmos_a W=2u L=240n W_CONT=600n NFING=2
MM34 nATD net237 vdd! vdd! pmos_a W=5.76u L=240n W_CONT=1.1u NFING=1
.ENDS

************************************************************************
* Library Name: Z11_RAM8Mb_8_16_32_OO_161219
* Cell Name:    Cell1
* View Name:    schematic
************************************************************************

.SUBCKT Cell1 Data nData nW High
*.PININFO Data:B High:B nData:B nW:B
MM4 High net26 gnd! gnd! nmos_a W=480n L=380n W_CONT=580n NFING=1
MM0 net26 High gnd! gnd! nmos_a W=480n L=380n W_CONT=580n NFING=1
MM5 nData nW net26 vdd! pmos_h W=660n L=240n M=1
MM3 High nW Data vdd! pmos_h W=660n L=240n M=1
MM6 High net26 vdd! vdd! pmos_a W=1u L=240n W_CONT=600n NFING=1
MM2 net26 High gnd! gnd! pmos_a W=1u L=240n W_CONT=600n NFING=1
.ENDS

************************************************************************
* Library Name: Z11_RAM8Mb_8_16_32_OO_161219
* Cell Name:    Fill_Bit_512x16
* View Name:    schematic
************************************************************************

.SUBCKT Fill_Bit_512x16
*.PININFO
XI8<1> net5<0> net6<0> vdd! net7<0> / Cell1
XI8<2> net5<1> net6<1> vdd! net7<1> / Cell1
XI8<3> net5<2> net6<2> vdd! net7<2> / Cell1
XI8<4> net5<3> net6<3> vdd! net7<3> / Cell1
XI8<5> net5<4> net6<4> vdd! net7<4> / Cell1
XI8<6> net5<5> net6<5> vdd! net7<5> / Cell1
XI8<7> net5<6> net6<6> vdd! net7<6> / Cell1
XI8<8> net5<7> net6<7> vdd! net7<7> / Cell1
XI8<9> net5<8> net6<8> vdd! net7<8> / Cell1
XI8<10> net5<9> net6<9> vdd! net7<9> / Cell1
XI8<11> net5<10> net6<10> vdd! net7<10> / Cell1
XI8<12> net5<11> net6<11> vdd! net7<11> / Cell1
XI8<13> net5<12> net6<12> vdd! net7<12> / Cell1
XI8<14> net5<13> net6<13> vdd! net7<13> / Cell1
XI8<15> net5<14> net6<14> vdd! net7<14> / Cell1
XI8<16> net5<15> net6<15> vdd! net7<15> / Cell1
MI108 gnd! vdd! gnd! cpoly_p W=360u L=2u
MI104 vdd! gnd! vdd! cpoly_n W=360u L=2u
.ENDS

************************************************************************
* Library Name: Z11_RAM8Mb_8_16_32_OO_161219
* Cell Name:    Fill_Block_8Kx8
* View Name:    schematic
************************************************************************

.SUBCKT Fill_Block_8Kx8
*.PININFO
XI0<1>  / Fill_Bit_512x16
XI0<2>  / Fill_Bit_512x16
XI0<3>  / Fill_Bit_512x16
XI0<4>  / Fill_Bit_512x16
XI0<5>  / Fill_Bit_512x16
XI0<6>  / Fill_Bit_512x16
XI0<7>  / Fill_Bit_512x16
XI0<8>  / Fill_Bit_512x16
MI2 gnd! vdd! gnd! cpoly_p W=180u L=2u
MI1 vdd! gnd! vdd! cpoly_n W=180u L=2u
.ENDS

************************************************************************
* Library Name: Z11_RAM8Mb_8_16_32_OO_161219
* Cell Name:    Fill_Dec_X512
* View Name:    schematic
************************************************************************

.SUBCKT Fill_Dec_X512
*.PININFO
MI6 gnd! vdd! gnd! cpoly_p W=281.6u L=2u
MI2 gnd! vdd! gnd! cpoly_p W=192u L=2u
MI5 vdd! gnd! vdd! cpoly_n W=307.2u L=2u
MI1 vdd! gnd! vdd! cpoly_n W=192u L=2u
.ENDS

************************************************************************
* Library Name: Z11_RAM8Mb_8_16_32_OO_161219
* Cell Name:    PADIN_OE
* View Name:    schematic
************************************************************************

.SUBCKT PADIN_OE CE OEN WEN nOE nOE_Master
*.PININFO CE:I OEN:I WEN:I nOE:I nOE_Master:O
XI98 net4 OEN gnd! gnd! vdd! vdd! / PAD
MI53 gnd! vdd! gnd! cpoly_p W=216u L=2u
MI46 vdd! gnd! vdd! cpoly_n W=372u L=2u
MM0 net46 net4 gnd! gnd! nmos_a W=480n L=240n W_CONT=600n NFING=1
MM4 net044 net46 gnd! gnd! nmos_a W=1.2u L=240n W_CONT=600n NFING=1
MM5 net46 net047 gnd! gnd! nmos_a W=1.2u L=240n W_CONT=600n NFING=1
MM8 net040 net044 gnd! gnd! nmos_a W=2.4u L=240n W_CONT=1.1u NFING=2
MM10 nOE_Master net040 gnd! gnd! nmos_a W=2.4u L=240n W_CONT=1.1u NFING=8
MM18 net059 net047 gnd! gnd! nmos_a W=1u L=240n W_CONT=600n NFING=1
MM17 net062 nOE net059 net059 nmos_a W=1u L=240n W_CONT=600n NFING=1
MM16 net047 WEN net068 net068 nmos_a W=1u L=240n W_CONT=600n NFING=1
MM15 net068 CE net071 net071 nmos_a W=1u L=240n W_CONT=600n NFING=1
MM14 net071 net062 gnd! gnd! nmos_a W=1u L=240n W_CONT=600n NFING=1
MM1 net27 net047 vdd! vdd! pmos_a W=1u L=240n W_CONT=600n NFING=1
MM2 net46 net4 net27 net27 pmos_a W=1u L=240n W_CONT=600n NFING=1
MM3 net27 net044 vdd! vdd! pmos_a W=480n L=400n W_CONT=600n NFING=1
MM6 net044 net46 vdd! vdd! pmos_a W=2u L=240n W_CONT=600n NFING=1
MM7 net040 net044 vdd! vdd! pmos_a W=4.5u L=240n W_CONT=600n NFING=2
MM9 nOE_Master net040 vdd! vdd! pmos_a W=4.5u L=240n W_CONT=600n NFING=8
MM20 net062 net047 vdd! vdd! pmos_a W=1u L=240n W_CONT=600n NFING=1
MM19 net062 nOE vdd! vdd! pmos_a W=1u L=240n W_CONT=600n NFING=1
MM13 net047 net062 vdd! vdd! pmos_a W=700n L=240n W_CONT=600n NFING=1
MM12 net047 WEN vdd! vdd! pmos_a W=700n L=240n W_CONT=600n NFING=1
MM11 net047 CE vdd! vdd! pmos_a W=700n L=240n W_CONT=600n NFING=1
.ENDS

************************************************************************
* Library Name: Z11_RAM8Mb_8_16_32_OO_161219
* Cell Name:    PADIN_WE
* View Name:    schematic
************************************************************************

.SUBCKT PADIN_WE NWR WEN nATD nClk nWE
*.PININFO NWR:I nClk:I WEN:O nATD:O nWE:O
XI98 net4 NWR gnd! gnd! vdd! vdd! / PAD
MI53 gnd! vdd! gnd! cpoly_p W=216u L=2u
MI46 vdd! gnd! vdd! cpoly_n W=264u L=2u
MM15 net37 net0112 net0127 net0127 nmos_a W=2.4u L=240n W_CONT=1.1u NFING=1
MM8 net0142 net4 gnd! gnd! nmos_a W=480n L=240n W_CONT=600n NFING=1
MM13 net0125 net0142 gnd! gnd! nmos_a W=1.2u L=240n W_CONT=600n NFING=1
MM41 net0112 nClk gnd! gnd! nmos_a W=1.2u L=240n W_CONT=600n NFING=1
MM12 net060 net0169 net0125 net0125 nmos_a W=1.2u L=240n W_CONT=600n NFING=1
MM39 net0169 net0112 gnd! gnd! nmos_a W=1.2u L=240n W_CONT=600n NFING=1
MM22 net0119 net0142 gnd! gnd! nmos_a W=480n L=240n W_CONT=600n NFING=1
MM20 net0116 net0119 net0107 net0107 nmos_a W=480n L=240n W_CONT=600n NFING=1
MM25 net0116 net0142 net0113 net0113 nmos_a W=480n L=240n W_CONT=600n NFING=1
MM26 net0113 net0168 gnd! gnd! nmos_a W=480n L=240n W_CONT=600n NFING=1
MM19 net0107 net060 gnd! gnd! nmos_a W=480n L=240n W_CONT=600n NFING=1
MM16 net0168 net060 gnd! gnd! nmos_a W=480n L=240n W_CONT=600n NFING=1
MM28 net060 net0112 net0148 net0148 nmos_a W=480n L=240n W_CONT=600n NFING=1
MM37 net0148 net0168 gnd! gnd! nmos_a W=480n L=240n W_CONT=600n NFING=1
MM6 net0130 net0168 gnd! gnd! nmos_a W=2.4u L=240n W_CONT=1.1u NFING=1
MM32 nWE net0199 gnd! gnd! nmos_a W=4.8u L=240n W_CONT=2.1u NFING=4
MM9 net0127 net0142 net0130 net0130 nmos_a W=2.4u L=240n W_CONT=1.1u NFING=1
MM45 net0199 net37 gnd! gnd! nmos_a W=4.8u L=240n W_CONT=2.1u NFING=1
MM46 WEN net097 gnd! gnd! nmos_a W=3.6u L=240n W_CONT=1.6u NFING=2
MM4 nATD net0116 gnd! gnd! nmos_a W=1.2u L=240n W_CONT=600n NFING=1
MM2 net097 net0119 gnd! gnd! nmos_a W=1.2u L=240n W_CONT=600n NFING=1
MM38 net0169 net0112 vdd! vdd! pmos_a W=2u L=240n W_CONT=600n NFING=1
MM7 net0142 net4 vdd! vdd! pmos_a W=480n L=240n W_CONT=600n NFING=1
MM40 net0112 nClk vdd! vdd! pmos_a W=2u L=240n W_CONT=600n NFING=1
MM10 net070 net0142 vdd! vdd! pmos_a W=2u L=240n W_CONT=600n NFING=1
MM11 net060 net0112 net070 net070 pmos_a W=2u L=240n W_CONT=600n NFING=1
MM5 nATD net0116 vdd! vdd! pmos_a W=2u L=240n W_CONT=600n NFING=1
MM21 net0119 net0142 vdd! vdd! pmos_a W=1u L=240n W_CONT=600n NFING=1
MM17 net0116 net0119 net058 net058 pmos_a W=1u L=240n W_CONT=600n NFING=1
MM24 net0116 net0142 net064 net064 pmos_a W=1u L=240n W_CONT=600n NFING=1
MM18 net058 net0168 vdd! vdd! pmos_a W=1u L=240n W_CONT=600n NFING=1
MM3 net097 net0119 vdd! vdd! pmos_a W=2u L=240n W_CONT=600n NFING=1
MM14 net0168 net060 vdd! vdd! pmos_a W=1u L=240n W_CONT=600n NFING=1
MM23 net064 net060 vdd! vdd! pmos_a W=1u L=240n W_CONT=600n NFING=1
MM27 net060 net0169 net0105 net0105 pmos_a W=1u L=240n W_CONT=600n NFING=1
MM36 net0105 net0168 vdd! vdd! pmos_a W=1u L=240n W_CONT=600n NFING=1
MM0 net0199 net37 vdd! vdd! pmos_a W=5.76u L=240n W_CONT=1.1u NFING=2
MM31 nWE net0199 vdd! vdd! pmos_a W=5.76u L=240n W_CONT=1.1u NFING=8
MM29 net37 net0112 vdd! vdd! pmos_a W=2u L=240n W_CONT=600n NFING=1
MM33 net37 net0168 vdd! vdd! pmos_a W=2u L=240n W_CONT=600n NFING=1
MM1 WEN net097 vdd! vdd! pmos_a W=5.76u L=240n W_CONT=1.1u NFING=2
MM30 net37 net0142 vdd! vdd! pmos_a W=2u L=240n W_CONT=600n NFING=1
.ENDS

************************************************************************
* Library Name: Z11_RAM8Mb_8_16_32_OO_161219
* Cell Name:    GND_PAD
* View Name:    schematic
************************************************************************

.SUBCKT GND_PAD GND_PAD VDD_PAD
*.PININFO GND_PAD:B VDD_PAD:B
DI5 gnd! GND_PAD dn 0 410u m=9
DI1 GND_PAD VDD_PAD dn 0 410u m=19
DI7 GND_PAD gnd! dn 0 410u m=9
MI0 vdd! gnd! vdd! cpoly_n W=357.24u L=2u
MI2 gnd! vdd! gnd! cpoly_p W=336.18u L=2u
.ENDS

************************************************************************
* Library Name: Z11_RAM8Mb_8_16_32_OO_161219
* Cell Name:    VDD_PAD
* View Name:    schematic
************************************************************************

.SUBCKT VDD_PAD GND_PAD VDD_PAD
*.PININFO GND_PAD:B VDD_PAD:B
MI2 gnd! vdd! gnd! cpoly_p W=336.18u L=2u
MI0 vdd! gnd! vdd! cpoly_n W=357.24u L=2u
DI5 VDD_PAD vdd! dn 0 410u m=10
DI1 GND_PAD VDD_PAD dn 0 410u m=19
DI7 vdd! VDD_PAD dn 0 410u m=9
.ENDS

************************************************************************
* Library Name: Z11_RAM8Mb_8_16_32_OO_161219
* Cell Name:    PADIO
* View Name:    schematic
************************************************************************

.SUBCKT PADIO DI DIO DO GND_PAD VDD_PAD nOE nWE
*.PININFO DO:I nOE:I nWE:I DI:O DIO:B GND_PAD:B VDD_PAD:B
XI98 net0204 DIO GND_PAD gnd! VDD_PAD vdd! / PAD
MI235 gnd! vdd! gnd! cpoly_p W=8.62u L=2u
MI225 gnd! vdd! gnd! cpoly_p W=126u L=2u
MI164 gnd! net0145 gnd! cpoly_p W=18u L=2u
MM3<1> DIO nmos1 GND_PAD GND_PAD nmos_io_a W=4.8u L=280n W_CONT=2.1u NFING=1
MM3<2> DIO nmos1 GND_PAD GND_PAD nmos_io_a W=4.8u L=280n W_CONT=2.1u NFING=1
MM3<3> DIO nmos1 GND_PAD GND_PAD nmos_io_a W=4.8u L=280n W_CONT=2.1u NFING=1
MM3<4> DIO nmos1 GND_PAD GND_PAD nmos_io_a W=4.8u L=280n W_CONT=2.1u NFING=1
MM3<5> DIO nmos1 GND_PAD GND_PAD nmos_io_a W=4.8u L=280n W_CONT=2.1u NFING=1
MM3<6> DIO nmos1 GND_PAD GND_PAD nmos_io_a W=4.8u L=280n W_CONT=2.1u NFING=1
MM3<7> DIO nmos1 GND_PAD GND_PAD nmos_io_a W=4.8u L=280n W_CONT=2.1u NFING=1
MM3<8> DIO nmos1 GND_PAD GND_PAD nmos_io_a W=4.8u L=280n W_CONT=2.1u NFING=1
MM3<9> DIO nmos1 GND_PAD GND_PAD nmos_io_a W=4.8u L=280n W_CONT=2.1u NFING=1
MM3<10> DIO nmos1 GND_PAD GND_PAD nmos_io_a W=4.8u L=280n W_CONT=2.1u NFING=1
MM3<11> DIO nmos1 GND_PAD GND_PAD nmos_io_a W=4.8u L=280n W_CONT=2.1u NFING=1
MM3<12> DIO nmos1 GND_PAD GND_PAD nmos_io_a W=4.8u L=280n W_CONT=2.1u NFING=1
MM3<13> DIO nmos1 GND_PAD GND_PAD nmos_io_a W=4.8u L=280n W_CONT=2.1u NFING=1
MM3<14> DIO nmos1 GND_PAD GND_PAD nmos_io_a W=4.8u L=280n W_CONT=2.1u NFING=1
MM3<15> DIO nmos1 GND_PAD GND_PAD nmos_io_a W=4.8u L=280n W_CONT=2.1u NFING=1
MM3<16> DIO nmos1 GND_PAD GND_PAD nmos_io_a W=4.8u L=280n W_CONT=2.1u NFING=1
MM3<17> DIO nmos1 GND_PAD GND_PAD nmos_io_a W=4.8u L=280n W_CONT=2.1u NFING=1
MM3<18> DIO nmos1 GND_PAD GND_PAD nmos_io_a W=4.8u L=280n W_CONT=2.1u NFING=1
MM3<19> DIO nmos1 GND_PAD GND_PAD nmos_io_a W=4.8u L=280n W_CONT=2.1u NFING=1
MM3<20> DIO nmos1 GND_PAD GND_PAD nmos_io_a W=4.8u L=280n W_CONT=2.1u NFING=1
MM3<21> DIO nmos1 GND_PAD GND_PAD nmos_io_a W=4.8u L=280n W_CONT=2.1u NFING=1
MM3<22> DIO nmos1 GND_PAD GND_PAD nmos_io_a W=4.8u L=280n W_CONT=2.1u NFING=1
MM3<23> DIO nmos1 GND_PAD GND_PAD nmos_io_a W=4.8u L=280n W_CONT=2.1u NFING=1
MM3<24> DIO nmos1 GND_PAD GND_PAD nmos_io_a W=4.8u L=280n W_CONT=2.1u NFING=1
MM4<1> DIO nmos2 GND_PAD GND_PAD nmos_io_a W=4.8u L=280n W_CONT=2.1u NFING=1
MM4<2> DIO nmos2 GND_PAD GND_PAD nmos_io_a W=4.8u L=280n W_CONT=2.1u NFING=1
MM4<3> DIO nmos2 GND_PAD GND_PAD nmos_io_a W=4.8u L=280n W_CONT=2.1u NFING=1
MM4<4> DIO nmos2 GND_PAD GND_PAD nmos_io_a W=4.8u L=280n W_CONT=2.1u NFING=1
MM4<5> DIO nmos2 GND_PAD GND_PAD nmos_io_a W=4.8u L=280n W_CONT=2.1u NFING=1
MM4<6> DIO nmos2 GND_PAD GND_PAD nmos_io_a W=4.8u L=280n W_CONT=2.1u NFING=1
MM4<7> DIO nmos2 GND_PAD GND_PAD nmos_io_a W=4.8u L=280n W_CONT=2.1u NFING=1
MM4<8> DIO nmos2 GND_PAD GND_PAD nmos_io_a W=4.8u L=280n W_CONT=2.1u NFING=1
MM4<9> DIO nmos2 GND_PAD GND_PAD nmos_io_a W=4.8u L=280n W_CONT=2.1u NFING=1
MM4<10> DIO nmos2 GND_PAD GND_PAD nmos_io_a W=4.8u L=280n W_CONT=2.1u NFING=1
MM4<11> DIO nmos2 GND_PAD GND_PAD nmos_io_a W=4.8u L=280n W_CONT=2.1u NFING=1
MM4<12> DIO nmos2 GND_PAD GND_PAD nmos_io_a W=4.8u L=280n W_CONT=2.1u NFING=1
MM4<13> DIO nmos2 GND_PAD GND_PAD nmos_io_a W=4.8u L=280n W_CONT=2.1u NFING=1
MM4<14> DIO nmos2 GND_PAD GND_PAD nmos_io_a W=4.8u L=280n W_CONT=2.1u NFING=1
MM4<15> DIO nmos2 GND_PAD GND_PAD nmos_io_a W=4.8u L=280n W_CONT=2.1u NFING=1
MM4<16> DIO nmos2 GND_PAD GND_PAD nmos_io_a W=4.8u L=280n W_CONT=2.1u NFING=1
MM4<17> DIO nmos2 GND_PAD GND_PAD nmos_io_a W=4.8u L=280n W_CONT=2.1u NFING=1