* SPICE NETLIST
***************************************

.SUBCKT pmos_a_CDNS_5887047866540 1 2 3
** N=3 EP=3 IP=0 FDC=1
M0 2 3 1 1 pmos_a L=2.4e-07 W=1.2e-06 AD=7.2e-13 AS=1.26e-13 PD=1.8e-06 PS=9e-07 w_cont=6e-07 nfing=1 mmm=1 $X=620 $Y=200 $D=5
.ENDS
***************************************
.SUBCKT nmos_a_CDNS_5887047866517
** N=3 EP=0 IP=0 FDC=0
*.SEEDPROM
.ENDS
***************************************
.SUBCKT dn_CDNS_587555745026
** N=2 EP=0 IP=0 FDC=0
.ENDS
***************************************
.SUBCKT ICV_1
** N=3 EP=0 IP=4 FDC=0
.ENDS
***************************************
.SUBCKT ICV_2
** N=3 EP=0 IP=7 FDC=0
.ENDS
***************************************
.SUBCKT ICV_3
** N=3 EP=0 IP=6 FDC=0
.ENDS
***************************************
.SUBCKT cpoly_n_CDNS_588704786651 1 2
** N=2 EP=2 IP=0 FDC=39
M0 1 2 1 cpoly_n w=9.16e-06 l=2e-06 c=1.08961e-13 as=1.67141e-13 ad=1.4976e-12 ps=2.88e-06 pd=2.57123e-06 sim_w=5.76e-06 m_per_maxw=1.59028 numb_sub_cont=3 nfing=1 $X=620 $Y=200 $D=22
M1 1 2 1 cpoly_n w=9.16e-06 l=2e-06 c=1.08961e-13 as=2.08643e-13 ad=1.4976e-12 ps=2.88e-06 pd=2.57123e-06 sim_w=5.76e-06 m_per_maxw=1.59028 numb_sub_cont=3 nfing=1 $X=3140 $Y=200 $D=22
M2 1 2 1 cpoly_n w=9.16e-06 l=2e-06 c=1.08961e-13 as=2.08643e-13 ad=1.4976e-12 ps=2.88e-06 pd=2.57123e-06 sim_w=5.76e-06 m_per_maxw=1.59028 numb_sub_cont=3 nfing=1 $X=5660 $Y=200 $D=22
M3 1 2 1 cpoly_n w=9.16e-06 l=2e-06 c=1.08961e-13 as=2.08643e-13 ad=1.4976e-12 ps=2.88e-06 pd=2.57123e-06 sim_w=5.76e-06 m_per_maxw=1.59028 numb_sub_cont=3 nfing=1 $X=8180 $Y=200 $D=22
M4 1 2 1 cpoly_n w=9.16e-06 l=2e-06 c=1.08961e-13 as=2.08643e-13 ad=1.4976e-12 ps=2.88e-06 pd=2.57123e-06 sim_w=5.76e-06 m_per_maxw=1.59028 numb_sub_cont=3 nfing=1 $X=10700 $Y=200 $D=22
M5 1 2 1 cpoly_n w=9.16e-06 l=2e-06 c=1.08961e-13 as=2.08643e-13 ad=1.4976e-12 ps=2.88e-06 pd=2.57123e-06 sim_w=5.76e-06 m_per_maxw=1.59028 numb_sub_cont=3 nfing=1 $X=13220 $Y=200 $D=22
M6 1 2 1 cpoly_n w=9.16e-06 l=2e-06 c=1.08961e-13 as=2.08643e-13 ad=1.4976e-12 ps=2.88e-06 pd=2.57123e-06 sim_w=5.76e-06 m_per_maxw=1.59028 numb_sub_cont=3 nfing=1 $X=15740 $Y=200 $D=22
M7 1 2 1 cpoly_n w=9.16e-06 l=2e-06 c=1.08961e-13 as=2.08643e-13 ad=1.4976e-12 ps=2.88e-06 pd=2.57123e-06 sim_w=5.76e-06 m_per_maxw=1.59028 numb_sub_cont=3 nfing=1 $X=18260 $Y=200 $D=22
M8 1 2 1 cpoly_n w=9.16e-06 l=2e-06 c=1.08961e-13 as=2.08643e-13 ad=1.4976e-12 ps=2.88e-06 pd=2.57123e-06 sim_w=5.76e-06 m_per_maxw=1.59028 numb_sub_cont=3 nfing=1 $X=20780 $Y=200 $D=22
M9 1 2 1 cpoly_n w=9.16e-06 l=2e-06 c=1.08961e-13 as=2.08643e-13 ad=1.4976e-12 ps=2.88e-06 pd=2.57123e-06 sim_w=5.76e-06 m_per_maxw=1.59028 numb_sub_cont=3 nfing=1 $X=23300 $Y=200 $D=22
M10 1 2 1 cpoly_n w=9.16e-06 l=2e-06 c=1.08961e-13 as=2.08643e-13 ad=1.4976e-12 ps=2.88e-06 pd=2.57123e-06 sim_w=5.76e-06 m_per_maxw=1.59028 numb_sub_cont=3 nfing=1 $X=25820 $Y=200 $D=22
M11 1 2 1 cpoly_n w=9.16e-06 l=2e-06 c=1.08961e-13 as=2.08643e-13 ad=1.4976e-12 ps=2.88e-06 pd=2.57123e-06 sim_w=5.76e-06 m_per_maxw=1.59028 numb_sub_cont=3 nfing=1 $X=28340 $Y=200 $D=22
M12 1 2 1 cpoly_n w=9.16e-06 l=2e-06 c=1.08961e-13 as=2.08643e-13 ad=1.4976e-12 ps=2.88e-06 pd=2.57123e-06 sim_w=5.76e-06 m_per_maxw=1.59028 numb_sub_cont=3 nfing=1 $X=30860 $Y=200 $D=22
M13 1 2 1 cpoly_n w=9.16e-06 l=2e-06 c=1.08961e-13 as=2.08643e-13 ad=1.4976e-12 ps=2.88e-06 pd=2.57123e-06 sim_w=5.76e-06 m_per_maxw=1.59028 numb_sub_cont=3 nfing=1 $X=33380 $Y=200 $D=22
M14 1 2 1 cpoly_n w=9.16e-06 l=2e-06 c=1.08961e-13 as=2.08643e-13 ad=1.4976e-12 ps=2.88e-06 pd=2.57123e-06 sim_w=5.76e-06 m_per_maxw=1.59028 numb_sub_cont=3 nfing=1 $X=35900 $Y=200 $D=22
M15 1 2 1 cpoly_n w=9.16e-06 l=2e-06 c=1.08961e-13 as=2.08643e-13 ad=1.4976e-12 ps=2.88e-06 pd=2.57123e-06 sim_w=5.76e-06 m_per_maxw=1.59028 numb_sub_cont=3 nfing=1 $X=38420 $Y=200 $D=22
M16 1 2 1 cpoly_n w=9.16e-06 l=2e-06 c=1.08961e-13 as=2.08643e-13 ad=1.4976e-12 ps=2.88e-06 pd=2.57123e-06 sim_w=5.76e-06 m_per_maxw=1.59028 numb_sub_cont=3 nfing=1 $X=40940 $Y=200 $D=22
M17 1 2 1 cpoly_n w=9.16e-06 l=2e-06 c=1.08961e-13 as=2.08643e-13 ad=1.4976e-12 ps=2.88e-06 pd=2.57123e-06 sim_w=5.76e-06 m_per_maxw=1.59028 numb_sub_cont=3 nfing=1 $X=43460 $Y=200 $D=22
M18 1 2 1 cpoly_n w=9.16e-06 l=2e-06 c=1.08961e-13 as=2.08643e-13 ad=1.4976e-12 ps=2.88e-06 pd=2.57123e-06 sim_w=5.76e-06 m_per_maxw=1.59028 numb_sub_cont=3 nfing=1 $X=45980 $Y=200 $D=22
M19 1 2 1 cpoly_n w=9.16e-06 l=2e-06 c=1.08961e-13 as=2.08643e-13 ad=1.4976e-12 ps=2.88e-06 pd=2.57123e-06 sim_w=5.76e-06 m_per_maxw=1.59028 numb_sub_cont=3 nfing=1 $X=48500 $Y=200 $D=22
M20 1 2 1 cpoly_n w=9.16e-06 l=2e-06 c=1.08961e-13 as=2.08643e-13 ad=1.4976e-12 ps=2.88e-06 pd=2.57123e-06 sim_w=5.76e-06 m_per_maxw=1.59028 numb_sub_cont=3 nfing=1 $X=51020 $Y=200 $D=22
M21 1 2 1 cpoly_n w=9.16e-06 l=2e-06 c=1.08961e-13 as=2.08643e-13 ad=1.4976e-12 ps=2.88e-06 pd=2.57123e-06 sim_w=5.76e-06 m_per_maxw=1.59028 numb_sub_cont=3 nfing=1 $X=53540 $Y=200 $D=22
M22 1 2 1 cpoly_n w=9.16e-06 l=2e-06 c=1.08961e-13 as=2.08643e-13 ad=1.4976e-12 ps=2.88e-06 pd=2.57123e-06 sim_w=5.76e-06 m_per_maxw=1.59028 numb_sub_cont=3 nfing=1 $X=56060 $Y=200 $D=22
M23 1 2 1 cpoly_n w=9.16e-06 l=2e-06 c=1.08961e-13 as=2.08643e-13 ad=1.4976e-12 ps=2.88e-06 pd=2.57123e-06 sim_w=5.76e-06 m_per_maxw=1.59028 numb_sub_cont=3 nfing=1 $X=58580 $Y=200 $D=22
M24 1 2 1 cpoly_n w=9.16e-06 l=2e-06 c=1.08961e-13 as=2.08643e-13 ad=1.4976e-12 ps=2.88e-06 pd=2.57123e-06 sim_w=5.76e-06 m_per_maxw=1.59028 numb_sub_cont=3 nfing=1 $X=61100 $Y=200 $D=22
M25 1 2 1 cpoly_n w=9.16e-06 l=2e-06 c=1.08961e-13 as=2.08643e-13 ad=1.4976e-12 ps=2.88e-06 pd=2.57123e-06 sim_w=5.76e-06 m_per_maxw=1.59028 numb_sub_cont=3 nfing=1 $X=63620 $Y=200 $D=22
M26 1 2 1 cpoly_n w=9.16e-06 l=2e-06 c=1.08961e-13 as=2.08643e-13 ad=1.4976e-12 ps=2.88e-06 pd=2.57123e-06 sim_w=5.76e-06 m_per_maxw=1.59028 numb_sub_cont=3 nfing=1 $X=66140 $Y=200 $D=22
M27 1 2 1 cpoly_n w=9.16e-06 l=2e-06 c=1.08961e-13 as=2.08643e-13 ad=1.4976e-12 ps=2.88e-06 pd=2.57123e-06 sim_w=5.76e-06 m_per_maxw=1.59028 numb_sub_cont=3 nfing=1 $X=68660 $Y=200 $D=22
M28 1 2 1 cpoly_n w=9.16e-06 l=2e-06 c=1.08961e-13 as=2.08643e-13 ad=1.4976e-12 ps=2.88e-06 pd=2.57123e-06 sim_w=5.76e-06 m_per_maxw=1.59028 numb_sub_cont=3 nfing=1 $X=71180 $Y=200 $D=22
M29 1 2 1 cpoly_n w=9.16e-06 l=2e-06 c=1.08961e-13 as=2.08643e-13 ad=1.4976e-12 ps=2.88e-06 pd=2.57123e-06 sim_w=5.76e-06 m_per_maxw=1.59028 numb_sub_cont=3 nfing=1 $X=73700 $Y=200 $D=22
M30 1 2 1 cpoly_n w=9.16e-06 l=2e-06 c=1.08961e-13 as=2.08643e-13 ad=1.4976e-12 ps=2.88e-06 pd=2.57123e-06 sim_w=5.76e-06 m_per_maxw=1.59028 numb_sub_cont=3 nfing=1 $X=76220 $Y=200 $D=22
M31 1 2 1 cpoly_n w=9.16e-06 l=2e-06 c=1.08961e-13 as=2.08643e-13 ad=1.4976e-12 ps=2.88e-06 pd=2.57123e-06 sim_w=5.76e-06 m_per_maxw=1.59028 numb_sub_cont=3 nfing=1 $X=78740 $Y=200 $D=22
M32 1 2 1 cpoly_n w=9.16e-06 l=2e-06 c=1.08961e-13 as=2.08643e-13 ad=1.4976e-12 ps=2.88e-06 pd=2.57123e-06 sim_w=5.76e-06 m_per_maxw=1.59028 numb_sub_cont=3 nfing=1 $X=81260 $Y=200 $D=22
M33 1 2 1 cpoly_n w=9.16e-06 l=2e-06 c=1.08961e-13 as=2.08643e-13 ad=1.4976e-12 ps=2.88e-06 pd=2.57123e-06 sim_w=5.76e-06 m_per_maxw=1.59028 numb_sub_cont=3 nfing=1 $X=83780 $Y=200 $D=22
M34 1 2 1 cpoly_n w=9.16e-06 l=2e-06 c=1.08961e-13 as=2.08643e-13 ad=1.4976e-12 ps=2.88e-06 pd=2.57123e-06 sim_w=5.76e-06 m_per_maxw=1.59028 numb_sub_cont=3 nfing=1 $X=86300 $Y=200 $D=22
M35 1 2 1 cpoly_n w=9.16e-06 l=2e-06 c=1.08961e-13 as=2.08643e-13 ad=1.4976e-12 ps=2.88e-06 pd=2.57123e-06 sim_w=5.76e-06 m_per_maxw=1.59028 numb_sub_cont=3 nfing=1 $X=88820 $Y=200 $D=22
M36 1 2 1 cpoly_n w=9.16e-06 l=2e-06 c=1.08961e-13 as=2.08643e-13 ad=1.4976e-12 ps=2.88e-06 pd=2.57123e-06 sim_w=5.76e-06 m_per_maxw=1.59028 numb_sub_cont=3 nfing=1 $X=91340 $Y=200 $D=22
M37 1 2 1 cpoly_n w=9.16e-06 l=2e-06 c=1.08961e-13 as=2.08643e-13 ad=1.4976e-12 ps=2.88e-06 pd=2.57123e-06 sim_w=5.76e-06 m_per_maxw=1.59028 numb_sub_cont=3 nfing=1 $X=93860 $Y=200 $D=22
M38 1 2 1 cpoly_n w=9.16e-06 l=2e-06 c=1.08961e-13 as=2.08643e-13 ad=2.304e-12 ps=2.88e-06 pd=5.14246e-06 sim_w=5.76e-06 m_per_maxw=1.59028 numb_sub_cont=3 nfing=1 $X=96380 $Y=200 $D=22
.ENDS
***************************************
.SUBCKT cpoly_p_CDNS_588704786650 1 2
** N=2 EP=2 IP=0 FDC=39
M0 1 2 1 cpoly_p w=8.62e-06 l=2e-06 c=1.08536e-13 as=1.21314e-13 ad=7.488e-13 ps=1.44e-06 pd=1.21456e-06 sim_w=2.88e-06 m_per_maxw=2.99306 numb_sub_cont=4 nfing=1 $X=620 $Y=200 $D=21
M1 1 2 1 cpoly_p w=8.62e-06 l=2e-06 c=1.08536e-13 as=1.53388e-13 ad=7.488e-13 ps=1.44e-06 pd=1.21456e-06 sim_w=2.88e-06 m_per_maxw=2.99306 numb_sub_cont=4 nfing=1 $X=3140 $Y=200 $D=21
M2 1 2 1 cpoly_p w=8.62e-06 l=2e-06 c=1.08536e-13 as=1.53388e-13 ad=7.488e-13 ps=1.44e-06 pd=1.21456e-06 sim_w=2.88e-06 m_per_maxw=2.99306 numb_sub_cont=4 nfing=1 $X=5660 $Y=200 $D=21
M3 1 2 1 cpoly_p w=8.62e-06 l=2e-06 c=1.08536e-13 as=1.53388e-13 ad=7.488e-13 ps=1.44e-06 pd=1.21456e-06 sim_w=2.88e-06 m_per_maxw=2.99306 numb_sub_cont=4 nfing=1 $X=8180 $Y=200 $D=21
M4 1 2 1 cpoly_p w=8.62e-06 l=2e-06 c=1.08536e-13 as=1.53388e-13 ad=7.488e-13 ps=1.44e-06 pd=1.21456e-06 sim_w=2.88e-06 m_per_maxw=2.99306 numb_sub_cont=4 nfing=1 $X=10700 $Y=200 $D=21
M5 1 2 1 cpoly_p w=8.62e-06 l=2e-06 c=1.08536e-13 as=1.53388e-13 ad=7.488e-13 ps=1.44e-06 pd=1.21456e-06 sim_w=2.88e-06 m_per_maxw=2.99306 numb_sub_cont=4 nfing=1 $X=13220 $Y=200 $D=21
M6 1 2 1 cpoly_p w=8.62e-06 l=2e-06 c=1.08536e-13 as=1.53388e-13 ad=7.488e-13 ps=1.44e-06 pd=1.21456e-06 sim_w=2.88e-06 m_per_maxw=2.99306 numb_sub_cont=4 nfing=1 $X=15740 $Y=200 $D=21
M7 1 2 1 cpoly_p w=8.62e-06 l=2e-06 c=1.08536e-13 as=1.53388e-13 ad=7.488e-13 ps=1.44e-06 pd=1.21456e-06 sim_w=2.88e-06 m_per_maxw=2.99306 numb_sub_cont=4 nfing=1 $X=18260 $Y=200 $D=21
M8 1 2 1 cpoly_p w=8.62e-06 l=2e-06 c=1.08536e-13 as=1.53388e-13 ad=7.488e-13 ps=1.44e-06 pd=1.21456e-06 sim_w=2.88e-06 m_per_maxw=2.99306 numb_sub_cont=4 nfing=1 $X=20780 $Y=200 $D=21
M9 1 2 1 cpoly_p w=8.62e-06 l=2e-06 c=1.08536e-13 as=1.53388e-13 ad=7.488e-13 ps=1.44e-06 pd=1.21456e-06 sim_w=2.88e-06 m_per_maxw=2.99306 numb_sub_cont=4 nfing=1 $X=23300 $Y=200 $D=21
M10 1 2 1 cpoly_p w=8.62e-06 l=2e-06 c=1.08536e-13 as=1.53388e-13 ad=7.488e-13 ps=1.44e-06 pd=1.21456e-06 sim_w=2.88e-06 m_per_maxw=2.99306 numb_sub_cont=4 nfing=1 $X=25820 $Y=200 $D=21
M11 1 2 1 cpoly_p w=8.62e-06 l=2e-06 c=1.08536e-13 as=1.53388e-13 ad=7.488e-13 ps=1.44e-06 pd=1.21456e-06 sim_w=2.88e-06 m_per_maxw=2.99306 numb_sub_cont=4 nfing=1 $X=28340 $Y=200 $D=21
M12 1 2 1 cpoly_p w=8.62e-06 l=2e-06 c=1.08536e-13 as=1.53388e-13 ad=7.488e-13 ps=1.44e-06 pd=1.21456e-06 sim_w=2.88e-06 m_per_maxw=2.99306 numb_sub_cont=4 nfing=1 $X=30860 $Y=200 $D=21
M13 1 2 1 cpoly_p w=8.62e-06 l=2e-06 c=1.08536e-13 as=1.53388e-13 ad=7.488e-13 ps=1.44e-06 pd=1.21456e-06 sim_w=2.88e-06 m_per_maxw=2.99306 numb_sub_cont=4 nfing=1 $X=33380 $Y=200 $D=21
M14 1 2 1 cpoly_p w=8.62e-06 l=2e-06 c=1.08536e-13 as=1.53388e-13 ad=7.488e-13 ps=1.44e-06 pd=1.21456e-06 sim_w=2.88e-06 m_per_maxw=2.99306 numb_sub_cont=4 nfing=1 $X=35900 $Y=200 $D=21
M15 1 2 1 cpoly_p w=8.62e-06 l=2e-06 c=1.08536e-13 as=1.53388e-13 ad=7.488e-13 ps=1.44e-06 pd=1.21456e-06 sim_w=2.88e-06 m_per_maxw=2.99306 numb_sub_cont=4 nfing=1 $X=38420 $Y=200 $D=21
M16 1 2 1 cpoly_p w=8.62e-06 l=2e-06 c=1.08536e-13 as=1.53388e-13 ad=7.488e-13 ps=1.44e-06 pd=1.21456e-06 sim_w=2.88e-06 m_per_maxw=2.99306 numb_sub_cont=4 nfing=1 $X=40940 $Y=200 $D=21
M17 1 2 1 cpoly_p w=8.62e-06 l=2e-06 c=1.08536e-13 as=1.53388e-13 ad=7.488e-13 ps=1.44e-06 pd=1.21456e-06 sim_w=2.88e-06 m_per_maxw=2.99306 numb_sub_cont=4 nfing=1 $X=43460 $Y=200 $D=21
M18 1 2 1 cpoly_p w=8.62e-06 l=2e-06 c=1.08536e-13 as=1.53388e-13 ad=7.488e-13 ps=1.44e-06 pd=1.21456e-06 sim_w=2.88e-06 m_per_maxw=2.99306 numb_sub_cont=4 nfing=1 $X=45980 $Y=200 $D=21
M19 1 2 1 cpoly_p w=8.62e-06 l=2e-06 c=1.08536e-13 as=1.53388e-13 ad=7.488e-13 ps=1.44e-06 pd=1.21456e-06 sim_w=2.88e-06 m_per_maxw=2.99306 numb_sub_cont=4 nfing=1 $X=48500 $Y=200 $D=21
M20 1 2 1 cpoly_p w=8.62e-06 l=2e-06 c=1.08536e-13 as=1.53388e-13 ad=7.488e-13 ps=1.44e-06 pd=1.21456e-06 sim_w=2.88e-06 m_per_maxw=2.99306 numb_sub_cont=4 nfing=1 $X=51020 $Y=200 $D=21
M21 1 2 1 cpoly_p w=8.62e-06 l=2e-06 c=1.08536e-13 as=1.53388e-13 ad=7.488e-13 ps=1.44e-06 pd=1.21456e-06 sim_w=2.88e-06 m_per_maxw=2.99306 numb_sub_cont=4 nfing=1 $X=53540 $Y=200 $D=21
M22 1 2 1 cpoly_p w=8.62e-06 l=2e-06 c=1.08536e-13 as=1.53388e-13 ad=7.488e-13 ps=1.44e-06 pd=1.21456e-06 sim_w=2.88e-06 m_per_maxw=2.99306 numb_sub_cont=4 nfing=1 $X=56060 $Y=200 $D=21
M23 1 2 1 cpoly_p w=8.62e-06 l=2e-06 c=1.08536e-13 as=1.53388e-13 ad=7.488e-13 ps=1.44e-06 pd=1.21456e-06 sim_w=2.88e-06 m_per_maxw=2.99306 numb_sub_cont=4 nfing=1 $X=58580 $Y=200 $D=21
M24 1 2 1 cpoly_p w=8.62e-06 l=2e-06 c=1.08536e-13 as=1.53388e-13 ad=7.488e-13 ps=1.44e-06 pd=1.21456e-06 sim_w=2.88e-06 m_per_maxw=2.99306 numb_sub_cont=4 nfing=1 $X=61100 $Y=200 $D=21
M25 1 2 1 cpoly_p w=8.62e-06 l=2e-06 c=1.08536e-13 as=1.53388e-13 ad=7.488e-13 ps=1.44e-06 pd=1.21456e-06 sim_w=2.88e-06 m_per_maxw=2.99306 numb_sub_cont=4 nfing=1 $X=63620 $Y=200 $D=21
M26 1 2 1 cpoly_p w=8.62e-06 l=2e-06 c=1.08536e-13 as=1.53388e-13 ad=7.488e-13 ps=1.44e-06 pd=1.21456e-06 sim_w=2.88e-06 m_per_maxw=2.99306 numb_sub_cont=4 nfing=1 $X=66140 $Y=200 $D=21
M27 1 2 1 cpoly_p w=8.62e-06 l=2e-06 c=1.08536e-13 as=1.53388e-13 ad=7.488e-13 ps=1.44e-06 pd=1.21456e-06 sim_w=2.88e-06 m_per_maxw=2.99306 numb_sub_cont=4 nfing=1 $X=68660 $Y=200 $D=21
M28 1 2 1 cpoly_p w=8.62e-06 l=2e-06 c=1.08536e-13 as=1.53388e-13 ad=7.488e-13 ps=1.44e-06 pd=1.21456e-06 sim_w=2.88e-06 m_per_maxw=2.99306 numb_sub_cont=4 nfing=1 $X=71180 $Y=200 $D=21
M29 1 2 1 cpoly_p w=8.62e-06 l=2e-06 c=1.08536e-13 as=1.53388e-13 ad=7.488e-13 ps=1.44e-06 pd=1.21456e-06 sim_w=2.88e-06 m_per_maxw=2.99306 numb_sub_cont=4 nfing=1 $X=73700 $Y=200 $D=21
M30 1 2 1 cpoly_p w=8.62e-06 l=2e-06 c=1.08536e-13 as=1.53388e-13 ad=7.488e-13 ps=1.44e-06 pd=1.21456e-06 sim_w=2.88e-06 m_per_maxw=2.99306 numb_sub_cont=4 nfing=1 $X=76220 $Y=200 $D=21
M31 1 2 1 cpoly_p w=8.62e-06 l=2e-06 c=1.08536e-13 as=1.53388e-13 ad=7.488e-13 ps=1.44e-06 pd=1.21456e-06 sim_w=2.88e-06 m_per_maxw=2.99306 numb_sub_cont=4 nfing=1 $X=78740 $Y=200 $D=21
M32 1 2 1 cpoly_p w=8.62e-06 l=2e-06 c=1.08536e-13 as=1.53388e-13 ad=7.488e-13 ps=1.44e-06 pd=1.21456e-06 sim_w=2.88e-06 m_per_maxw=2.99306 numb_sub_cont=4 nfing=1 $X=81260 $Y=200 $D=21
M33 1 2 1 cpoly_p w=8.62e-06 l=2e-06 c=1.08536e-13 as=1.53388e-13 ad=7.488e-13 ps=1.44e-06 pd=1.21456e-06 sim_w=2.88e-06 m_per_maxw=2.99306 numb_sub_cont=4 nfing=1 $X=83780 $Y=200 $D=21
M34 1 2 1 cpoly_p w=8.62e-06 l=2e-06 c=1.08536e-13 as=1.53388e-13 ad=7.488e-13 ps=1.44e-06 pd=1.21456e-06 sim_w=2.88e-06 m_per_maxw=2.99306 numb_sub_cont=4 nfing=1 $X=86300 $Y=200 $D=21
M35 1 2 1 cpoly_p w=8.62e-06 l=2e-06 c=1.08536e-13 as=1.53388e-13 ad=7.488e-13 ps=1.44e-06 pd=1.21456e-06 sim_w=2.88e-06 m_per_maxw=2.99306 numb_sub_cont=4 nfing=1 $X=88820 $Y=200 $D=21
M36 1 2 1 cpoly_p w=8.62e-06 l=2e-06 c=1.08536e-13 as=1.53388e-13 ad=7.488e-13 ps=1.44e-06 pd=1.21456e-06 sim_w=2.88e-06 m_per_maxw=2.99306 numb_sub_cont=4 nfing=1 $X=91340 $Y=200 $D=21
M37 1 2 1 cpoly_p w=8.62e-06 l=2e-06 c=1.08536e-13 as=1.53388e-13 ad=7.488e-13 ps=1.44e-06 pd=1.21456e-06 sim_w=2.88e-06 m_per_maxw=2.99306 numb_sub_cont=4 nfing=1 $X=93860 $Y=200 $D=21
M38 1 2 1 cpoly_p w=8.62e-06 l=2e-06 c=1.08536e-13 as=1.53388e-13 ad=1.152e-12 ps=1.44e-06 pd=2.42912e-06 sim_w=2.88e-06 m_per_maxw=2.99306 numb_sub_cont=4 nfing=1 $X=96380 $Y=200 $D=21
.ENDS
***************************************
.SUBCKT VDD_PAD gnd! vdd!
** N=8 EP=2 IP=26 FDC=78
*.CALIBRE ISOLATED NETS: VDD_PAD GND_PAD
X8 vdd! gnd! cpoly_n_CDNS_588704786651 $T=520 333340 0 0 $X=520 $Y=333340
X9 gnd! vdd! cpoly_p_CDNS_588704786650 $T=520 320500 0 0 $X=520 $Y=320500
.ENDS
***************************************
.SUBCKT pmos_a_CDNS_5887047866567
** N=3 EP=0 IP=0 FDC=0
*.SEEDPROM
.ENDS
***************************************
.SUBCKT nmos_a_CDNS_5887047866553 1 2 3
** N=3 EP=3 IP=0 FDC=1
M0 2 3 1 1 nmos_a L=2.4e-07 W=4.8e-06 AD=1.656e-12 AS=1.92e-12 PD=4.14e-06 PS=2.07e-06 w_cont=2.1e-06 nfing=1 source_num=2 $X=620 $Y=200 $D=1
.ENDS
***************************************
.SUBCKT cpoly_n_CDNS_5887047866516
** N=2 EP=0 IP=0 FDC=0
*.SEEDPROM
.ENDS
***************************************
.SUBCKT pmos_a_CDNS_5887047866519
** N=3 EP=0 IP=0 FDC=0
*.SEEDPROM
.ENDS
***************************************
.SUBCKT nmos_a_CDNS_5887047866525
** N=3 EP=0 IP=0 FDC=0
*.SEEDPROM
.ENDS
***************************************
.SUBCKT pmos_a_CDNS_5887047866513
** N=3 EP=0 IP=0 FDC=0
*.SEEDPROM
.ENDS
***************************************
.SUBCKT nmos_a_CDNS_5887047866526
** N=3 EP=0 IP=0 FDC=0
*.SEEDPROM
.ENDS
***************************************
.SUBCKT nmos_a_CDNS_5887047866524
** N=3 EP=0 IP=0 FDC=0
*.SEEDPROM
.ENDS
***************************************
.SUBCKT pmos_a_CDNS_5887047866518
** N=3 EP=0 IP=0 FDC=0
*.SEEDPROM
.ENDS
***************************************
.SUBCKT cpoly_p_CDNS_5887047866511 1 2
** N=2 EP=2 IP=0 FDC=36
M0 1 2 1 cpoly_p w=6e-06 l=2e-06 c=8.0712e-14 as=1.68e-13 ad=7.488e-13 ps=1.44e-06 pd=1.13684e-06 sim_w=2.88e-06 m_per_maxw=2.08333 numb_sub_cont=4 nfing=1 $X=620 $Y=200 $D=21
M1 1 2 1 cpoly_p w=6e-06 l=2e-06 c=8.0712e-14 as=2.1408e-13 ad=7.488e-13 ps=1.44e-06 pd=1.13684e-06 sim_w=2.88e-06 m_per_maxw=2.08333 numb_sub_cont=4 nfing=1 $X=3140 $Y=200 $D=21
M2 1 2 1 cpoly_p w=6e-06 l=2e-06 c=8.0712e-14 as=2.1408e-13 ad=7.488e-13 ps=1.44e-06 pd=1.13684e-06 sim_w=2.88e-06 m_per_maxw=2.08333 numb_sub_cont=4 nfing=1 $X=5660 $Y=200 $D=21
M3 1 2 1 cpoly_p w=6e-06 l=2e-06 c=8.0712e-14 as=2.1408e-13 ad=7.488e-13 ps=1.44e-06 pd=1.13684e-06 sim_w=2.88e-06 m_per_maxw=2.08333 numb_sub_cont=4 nfing=1 $X=8180 $Y=200 $D=21
M4 1 2 1 cpoly_p w=6e-06 l=2e-06 c=8.0712e-14 as=2.1408e-13 ad=7.488e-13 ps=1.44e-06 pd=1.13684e-06 sim_w=2.88e-06 m_per_maxw=2.08333 numb_sub_cont=4 nfing=1 $X=10700 $Y=200 $D=21
M5 1 2 1 cpoly_p w=6e-06 l=2e-06 c=8.0712e-14 as=2.1408e-13 ad=7.488e-13 ps=1.44e-06 pd=1.13684e-06 sim_w=2.88e-06 m_per_maxw=2.08333 numb_sub_cont=4 nfing=1 $X=13220 $Y=200 $D=21
M6 1 2 1 cpoly_p w=6e-06 l=2e-06 c=8.0712e-14 as=2.1408e-13 ad=7.488e-13 ps=1.44e-06 pd=1.13684e-06 sim_w=2.88e-06 m_per_maxw=2.08333 numb_sub_cont=4 nfing=1 $X=15740 $Y=200 $D=21
M7 1 2 1 cpoly_p w=6e-06 l=2e-06 c=8.0712e-14 as=2.1408e-13 ad=7.488e-13 ps=1.44e-06 pd=1.13684e-06 sim_w=2.88e-06 m_per_maxw=2.08333 numb_sub_cont=4 nfing=1 $X=18260 $Y=200 $D=21
M8 1 2 1 cpoly_p w=6e-06 l=2e-06 c=8.0712e-14 as=2.1408e-13 ad=7.488e-13 ps=1.44e-06 pd=1.13684e-06 sim_w=2.88e-06 m_per_maxw=2.08333 numb_sub_cont=4 nfing=1 $X=20780 $Y=200 $D=21
M9 1 2 1 cpoly_p w=6e-06 l=2e-06 c=8.0712e-14 as=2.1408e-13 ad=7.488e-13 ps=1.44e-06 pd=1.13684e-06 sim_w=2.88e-06 m_per_maxw=2.08333 numb_sub_cont=4 nfing=1 $X=23300 $Y=200 $D=21
M10 1 2 1 cpoly_p w=6e-06 l=2e-06 c=8.0712e-14 as=2.1408e-13 ad=7.488e-13 ps=1.44e-06 pd=1.13684e-06 sim_w=2.88e-06 m_per_maxw=2.08333 numb_sub_cont=4 nfing=1 $X=25820 $Y=200 $D=21
M11 1 2 1 cpoly_p w=6e-06 l=2e-06 c=8.0712e-14 as=2.1408e-13 ad=7.488e-13 ps=1.44e-06 pd=1.13684e-06 sim_w=2.88e-06 m_per_maxw=2.08333 numb_sub_cont=4 nfing=1 $X=28340 $Y=200 $D=21
M12 1 2 1 cpoly_p w=6e-06 l=2e-06 c=8.0712e-14 as=2.1408e-13 ad=7.488e-13 ps=1.44e-06 pd=1.13684e-06 sim_w=2.88e-06 m_per_maxw=2.08333 numb_sub_cont=4 nfing=1 $X=30860 $Y=200 $D=21
M13 1 2 1 cpoly_p w=6e-06 l=2e-06 c=8.0712e-14 as=2.1408e-13 ad=7.488e-13 ps=1.44e-06 pd=1.13684e-06 sim_w=2.88e-06 m_per_maxw=2.08333 numb_sub_cont=4 nfing=1 $X=33380 $Y=200 $D=21
M14 1 2 1 cpoly_p w=6e-06 l=2e-06 c=8.0712e-14 as=2.1408e-13 ad=7.488e-13 ps=1.44e-06 pd=1.13684e-06 sim_w=2.88e-06 m_per_maxw=2.08333 numb_sub_cont=4 nfing=1 $X=35900 $Y=200 $D=21
M15 1 2 1 cpoly_p w=6e-06 l=2e-06 c=8.0712e-14 as=2.1408e-13 ad=7.488e-13 ps=1.44e-06 pd=1.13684e-06 sim_w=2.88e-06 m_per_maxw=2.08333 numb_sub_cont=4 nfing=1 $X=38420 $Y=200 $D=21
M16 1 2 1 cpoly_p w=6e-06 l=2e-06 c=8.0712e-14 as=2.1408e-13 ad=7.488e-13 ps=1.44e-06 pd=1.13684e-06 sim_w=2.88e-06 m_per_maxw=2.08333 numb_sub_cont=4 nfing=1 $X=40940 $Y=200 $D=21
M17 1 2 1 cpoly_p w=6e-06 l=2e-06 c=8.0712e-14 as=2.1408e-13 ad=7.488e-13 ps=1.44e-06 pd=1.13684e-06 sim_w=2.88e-06 m_per_maxw=2.08333 numb_sub_cont=4 nfing=1 $X=43460 $Y=200 $D=21
M18 1 2 1 cpoly_p w=6e-06 l=2e-06 c=8.0712e-14 as=2.1408e-13 ad=7.488e-13 ps=1.44e-06 pd=1.13684e-06 sim_w=2.88e-06 m_per_maxw=2.08333 numb_sub_cont=4 nfing=1 $X=45980 $Y=200 $D=21
M19 1 2 1 cpoly_p w=6e-06 l=2e-06 c=8.0712e-14 as=2.1408e-13 ad=7.488e-13 ps=1.44e-06 pd=1.13684e-06 sim_w=2.88e-06 m_per_maxw=2.08333 numb_sub_cont=4 nfing=1 $X=48500 $Y=200 $D=21
M20 1 2 1 cpoly_p w=6e-06 l=2e-06 c=8.0712e-14 as=2.1408e-13 ad=7.488e-13 ps=1.44e-06 pd=1.13684e-06 sim_w=2.88e-06 m_per_maxw=2.08333 numb_sub_cont=4 nfing=1 $X=51020 $Y=200 $D=21
M21 1 2 1 cpoly_p w=6e-06 l=2e-06 c=8.0712e-14 as=2.1408e-13 ad=7.488e-13 ps=1.44e-06 pd=1.13684e-06 sim_w=2.88e-06 m_per_maxw=2.08333 numb_sub_cont=4 nfing=1 $X=53540 $Y=200 $D=21
M22 1 2 1 cpoly_p w=6e-06 l=2e-06 c=8.0712e-14 as=2.1408e-13 ad=7.488e-13 ps=1.44e-06 pd=1.13684e-06 sim_w=2.88e-06 m_per_maxw=2.08333 numb_sub_cont=4 nfing=1 $X=56060 $Y=200 $D=21
M23 1 2 1 cpoly_p w=6e-06 l=2e-06 c=8.0712e-14 as=2.1408e-13 ad=7.488e-13 ps=1.44e-06 pd=1.13684e-06 sim_w=2.88e-06 m_per_maxw=2.08333 numb_sub_cont=4 nfing=1 $X=58580 $Y=200 $D=21
M24 1 2 1 cpoly_p w=6e-06 l=2e-06 c=8.0712e-14 as=2.1408e-13 ad=7.488e-13 ps=1.44e-06 pd=1.13684e-06 sim_w=2.88e-06 m_per_maxw=2.08333 numb_sub_cont=4 nfing=1 $X=61100 $Y=200 $D=21
M25 1 2 1 cpoly_p w=6e-06 l=2e-06 c=8.0712e-14 as=2.1408e-13 ad=7.488e-13 ps=1.44e-06 pd=1.13684e-06 sim_w=2.88e-06 m_per_maxw=2.08333 numb_sub_cont=4 nfing=1 $X=63620 $Y=200 $D=21
M26 1 2 1 cpoly_p w=6e-06 l=2e-06 c=8.0712e-14 as=2.1408e-13 ad=7.488e-13 ps=1.44e-06 pd=1.13684e-06 sim_w=2.88e-06 m_per_maxw=2.08333 numb_sub_cont=4 nfing=1 $X=66140 $Y=200 $D=21
M27 1 2 1 cpoly_p w=6e-06 l=2e-06 c=8.0712e-14 as=2.1408e-13 ad=7.488e-13 ps=1.44e-06 pd=1.13684e-06 sim_w=2.88e-06 m_per_maxw=2.08333 numb_sub_cont=4 nfing=1 $X=68660 $Y=200 $D=21
M28 1 2 1 cpoly_p w=6e-06 l=2e-06 c=8.0712e-14 as=2.1408e-13 ad=7.488e-13 ps=1.44e-06 pd=1.13684e-06 sim_w=2.88e-06 m_per_maxw=2.08333 numb_sub_cont=4 nfing=1 $X=71180 $Y=200 $D=21
M29 1 2 1 cpoly_p w=6e-06 l=2e-06 c=8.0712e-14 as=2.1408e-13 ad=7.488e-13 ps=1.44e-06 pd=1.13684e-06 sim_w=2.88e-06 m_per_maxw=2.08333 numb_sub_cont=4 nfing=1 $X=73700 $Y=200 $D=21
M30 1 2 1 cpoly_p w=6e-06 l=2e-06 c=8.0712e-14 as=2.1408e-13 ad=7.488e-13 ps=1.44e-06 pd=1.13684e-06 sim_w=2.88e-06 m_per_maxw=2.08333 numb_sub_cont=4 nfing=1 $X=76220 $Y=200 $D=21
M31 1 2 1 cpoly_p w=6e-06 l=2e-06 c=8.0712e-14 as=2.1408e-13 ad=7.488e-13 ps=1.44e-06 pd=1.13684e-06 sim_w=2.88e-06 m_per_maxw=2.08333 numb_sub_cont=4 nfing=1 $X=78740 $Y=200 $D=21
M32 1 2 1 cpoly_p w=6e-06 l=2e-06 c=8.0712e-14 as=2.1408e-13 ad=7.488e-13 ps=1.44e-06 pd=1.13684e-06 sim_w=2.88e-06 m_per_maxw=2.08333 numb_sub_cont=4 nfing=1 $X=81260 $Y=200 $D=21
M33 1 2 1 cpoly_p w=6e-06 l=2e-06 c=8.0712e-14 as=2.1408e-13 ad=7.488e-13 ps=1.44e-06 pd=1.13684e-06 sim_w=2.88e-06 m_per_maxw=2.08333 numb_sub_cont=4 nfing=1 $X=83780 $Y=200 $D=21
M34 1 2 1 cpoly_p w=6e-06 l=2e-06 c=8.0712e-14 as=2.1408e-13 ad=7.488e-13 ps=1.44e-06 pd=1.13684e-06 sim_w=2.88e-06 m_per_maxw=2.08333 numb_sub_cont=4 nfing=1 $X=86300 $Y=200 $D=21
M35 1 2 1 cpoly_p w=6e-06 l=2e-06 c=8.0712e-14 as=1.68e-13 ad=7.488e-13 ps=1.44e-06 pd=1.13684e-06 sim_w=2.88e-06 m_per_maxw=2.08333 numb_sub_cont=4 nfing=1 $X=88820 $Y=200 $D=21
.ENDS
***************************************
.SUBCKT cpoly_n_CDNS_5887047866514 1 2
** N=2 EP=2 IP=0 FDC=39
M0 1 2 1 cpoly_n w=6e-06 l=2e-06 c=7.5402e-14 as=2.4e-13 ad=1.4976e-12 ps=2.88e-06 pd=2.4338e-06 sim_w=5.76e-06 m_per_maxw=1.04167 numb_sub_cont=3 nfing=1 $X=620 $Y=200 $D=22
M1 1 2 1 cpoly_n w=6e-06 l=2e-06 c=7.5402e-14 as=3.0336e-13 ad=1.4976e-12 ps=2.88e-06 pd=2.4338e-06 sim_w=5.76e-06 m_per_maxw=1.04167 numb_sub_cont=3 nfing=1 $X=3140 $Y=200 $D=22
M2 1 2 1 cpoly_n w=6e-06 l=2e-06 c=7.5402e-14 as=3.0336e-13 ad=1.4976e-12 ps=2.88e-06 pd=2.4338e-06 sim_w=5.76e-06 m_per_maxw=1.04167 numb_sub_cont=3 nfing=1 $X=5660 $Y=200 $D=22
M3 1 2 1 cpoly_n w=6e-06 l=2e-06 c=7.5402e-14 as=3.0336e-13 ad=1.4976e-12 ps=2.88e-06 pd=2.4338e-06 sim_w=5.76e-06 m_per_maxw=1.04167 numb_sub_cont=3 nfing=1 $X=8180 $Y=200 $D=22
M4 1 2 1 cpoly_n w=6e-06 l=2e-06 c=7.5402e-14 as=3.0336e-13 ad=1.4976e-12 ps=2.88e-06 pd=2.4338e-06 sim_w=5.76e-06 m_per_maxw=1.04167 numb_sub_cont=3 nfing=1 $X=10700 $Y=200 $D=22
M5 1 2 1 cpoly_n w=6e-06 l=2e-06 c=7.5402e-14 as=3.0336e-13 ad=1.4976e-12 ps=2.88e-06 pd=2.4338e-06 sim_w=5.76e-06 m_per_maxw=1.04167 numb_sub_cont=3 nfing=1 $X=13220 $Y=200 $D=22
M6 1 2 1 cpoly_n w=6e-06 l=2e-06 c=7.5402e-14 as=3.0336e-13 ad=1.4976e-12 ps=2.88e-06 pd=2.4338e-06 sim_w=5.76e-06 m_per_maxw=1.04167 numb_sub_cont=3 nfing=1 $X=15740 $Y=200 $D=22
M7 1 2 1 cpoly_n w=6e-06 l=2e-06 c=7.5402e-14 as=3.0336e-13 ad=1.4976e-12 ps=2.88e-06 pd=2.4338e-06 sim_w=5.76e-06 m_per_maxw=1.04167 numb_sub_cont=3 nfing=1 $X=18260 $Y=200 $D=22
M8 1 2 1 cpoly_n w=6e-06 l=2e-06 c=7.5402e-14 as=3.0336e-13 ad=1.4976e-12 ps=2.88e-06 pd=2.4338e-06 sim_w=5.76e-06 m_per_maxw=1.04167 numb_sub_cont=3 nfing=1 $X=20780 $Y=200 $D=22
M9 1 2 1 cpoly_n w=6e-06 l=2e-06 c=7.5402e-14 as=3.0336e-13 ad=1.4976e-12 ps=2.88e-06 pd=2.4338e-06 sim_w=5.76e-06 m_per_maxw=1.04167 numb_sub_cont=3 nfing=1 $X=23300 $Y=200 $D=22
M10 1 2 1 cpoly_n w=6e-06 l=2e-06 c=7.5402e-14 as=3.0336e-13 ad=1.4976e-12 ps=2.88e-06 pd=2.4338e-06 sim_w=5.76e-06 m_per_maxw=1.04167 numb_sub_cont=3 nfing=1 $X=25820 $Y=200 $D=22
M11 1 2 1 cpoly_n w=6e-06 l=2e-06 c=7.5402e-14 as=3.0336e-13 ad=1.4976e-12 ps=2.88e-06 pd=2.4338e-06 sim_w=5.76e-06 m_per_maxw=1.04167 numb_sub_cont=3 nfing=1 $X=28340 $Y=200 $D=22
M12 1 2 1 cpoly_n w=6e-06 l=2e-06 c=7.5402e-14 as=3.0336e-13 ad=1.4976e-12 ps=2.88e-06 pd=2.4338e-06 sim_w=5.76e-06 m_per_maxw=1.04167 numb_sub_cont=3 nfing=1 $X=30860 $Y=200 $D=22
M13 1 2 1 cpoly_n w=6e-06 l=2e-06 c=7.5402e-14 as=3.0336e-13 ad=1.4976e-12 ps=2.88e-06 pd=2.4338e-06 sim_w=5.76e-06 m_per_maxw=1.04167 numb_sub_cont=3 nfing=1 $X=33380 $Y=200 $D=22
M14 1 2 1 cpoly_n w=6e-06 l=2e-06 c=7.5402e-14 as=3.0336e-13 ad=1.4976e-12 ps=2.88e-06 pd=2.4338e-06 sim_w=5.76e-06 m_per_maxw=1.04167 numb_sub_cont=3 nfing=1 $X=35900 $Y=200 $D=22
M15 1 2 1 cpoly_n w=6e-06 l=2e-06 c=7.5402e-14 as=3.0336e-13 ad=1.4976e-12 ps=2.88e-06 pd=2.4338e-06 sim_w=5.76e-06 m_per_maxw=1.04167 numb_sub_cont=3 nfing=1 $X=38420 $Y=200 $D=22
M16 1 2 1 cpoly_n w=6e-06 l=2e-06 c=7.5402e-14 as=3.0336e-13 ad=1.4976e-12 ps=2.88e-06 pd=2.4338e-06 sim_w=5.76e-06 m_per_maxw=1.04167 numb_sub_cont=3 nfing=1 $X=40940 $Y=200 $D=22
M17 1 2 1 cpoly_n w=6e-06 l=2e-06 c=7.5402e-14 as=3.0336e-13 ad=1.4976e-12 ps=2.88e-06 pd=2.4338e-06 sim_w=5.76e-06 m_per_maxw=1.04167 numb_sub_cont=3 nfing=1 $X=43460 $Y=200 $D=22
M18 1 2 1 cpoly_n w=6e-06 l=2e-06 c=7.5402e-14 as=3.0336e-13 ad=1.4976e-12 ps=2.88e-06 pd=2.4338e-06 sim_w=5.76e-06 m_per_maxw=1.04167 numb_sub_cont=3 nfing=1 $X=45980 $Y=200 $D=22
M19 1 2 1 cpoly_n w=6e-06 l=2e-06 c=7.5402e-14 as=3.0336e-13 ad=1.4976e-12 ps=2.88e-06 pd=2.4338e-06 sim_w=5.76e-06 m_per_maxw=1.04167 numb_sub_cont=3 nfing=1 $X=48500 $Y=200 $D=22
M20 1 2 1 cpoly_n w=6e-06 l=2e-06 c=7.5402e-14 as=3.0336e-13 ad=1.4976e-12 ps=2.88e-06 pd=2.4338e-06 sim_w=5.76e-06 m_per_maxw=1.04167 numb_sub_cont=3 nfing=1 $X=51020 $Y=200 $D=22
M21 1 2 1 cpoly_n w=6e-06 l=2e-06 c=7.5402e-14 as=3.0336e-13 ad=1.4976e-12 ps=2.88e-06 pd=2.4338e-06 sim_w=5.76e-06 m_per_maxw=1.04167 numb_sub_cont=3 nfing=1 $X=53540 $Y=200 $D=22
M22 1 2 1 cpoly_n w=6e-06 l=2e-06 c=7.5402e-14 as=3.0336e-13 ad=1.4976e-12 ps=2.88e-06 pd=2.4338e-06 sim_w=5.76e-06 m_per_maxw=1.04167 numb_sub_cont=3 nfing=1 $X=56060 $Y=200 $D=22
M23 1 2 1 cpoly_n w=6e-06 l=2e-06 c=7.5402e-14 as=3.0336e-13 ad=1.4976e-12 ps=2.88e-06 pd=2.4338e-06 sim_w=5.76e-06 m_per_maxw=1.04167 numb_sub_cont=3 nfing=1 $X=58580 $Y=200 $D=22
M24 1 2 1 cpoly_n w=6e-06 l=2e-06 c=7.5402e-14 as=3.0336e-13 ad=1.4976e-12 ps=2.88e-06 pd=2.4338e-06 sim_w=5.76e-06 m_per_maxw=1.04167 numb_sub_cont=3 nfing=1 $X=61100 $Y=200 $D=22
M25 1 2 1 cpoly_n w=6e-06 l=2e-06 c=7.5402e-14 as=3.0336e-13 ad=1.4976e-12 ps=2.88e-06 pd=2.4338e-06 sim_w=5.76e-06 m_per_maxw=1.04167 numb_sub_cont=3 nfing=1 $X=63620 $Y=200 $D=22
M26 1 2 1 cpoly_n w=6e-06 l=2e-06 c=7.5402e-14 as=3.0336e-13 ad=1.4976e-12 ps=2.88e-06 pd=2.4338e-06 sim_w=5.76e-06 m_per_maxw=1.04167 numb_sub_cont=3 nfing=1 $X=66140 $Y=200 $D=22
M27 1 2 1 cpoly_n w=6e-06 l=2e-06 c=7.5402e-14 as=3.0336e-13 ad=1.4976e-12 ps=2.88e-06 pd=2.4338e-06 sim_w=5.76e-06 m_per_maxw=1.04167 numb_sub_cont=3 nfing=1 $X=68660 $Y=200 $D=22
M28 1 2 1 cpoly_n w=6e-06 l=2e-06 c=7.5402e-14 as=3.0336e-13 ad=1.4976e-12 ps=2.88e-06 pd=2.4338e-06 sim_w=5.76e-06 m_per_maxw=1.04167 numb_sub_cont=3 nfing=1 $X=71180 $Y=200 $D=22
M29 1 2 1 cpoly_n w=6e-06 l=2e-06 c=7.5402e-14 as=3.0336e-13 ad=1.4976e-12 ps=2.88e-06 pd=2.4338e-06 sim_w=5.76e-06 m_per_maxw=1.04167 numb_sub_cont=3 nfing=1 $X=73700 $Y=200 $D=22
M30 1 2 1 cpoly_n w=6e-06 l=2e-06 c=7.5402e-14 as=3.0336e-13 ad=1.4976e-12 ps=2.88e-06 pd=2.4338e-06 sim_w=5.76e-06 m_per_maxw=1.04167 numb_sub_cont=3 nfing=1 $X=76220 $Y=200 $D=22
M31 1 2 1 cpoly_n w=6e-06 l=2e-06 c=7.5402e-14 as=3.0336e-13 ad=1.4976e-12 ps=2.88e-06 pd=2.4338e-06 sim_w=5.76e-06 m_per_maxw=1.04167 numb_sub_cont=3 nfing=1 $X=78740 $Y=200 $D=22
M32 1 2 1 cpoly_n w=6e-06 l=2e-06 c=7.5402e-14 as=3.0336e-13 ad=1.4976e-12 ps=2.88e-06 pd=2.4338e-06 sim_w=5.76e-06 m_per_maxw=1.04167 numb_sub_cont=3 nfing=1 $X=81260 $Y=200 $D=22
M33 1 2 1 cpoly_n w=6e-06 l=2e-06 c=7.5402e-14 as=3.0336e-13 ad=1.4976e-12 ps=2.88e-06 pd=2.4338e-06 sim_w=5.76e-06 m_per_maxw=1.04167 numb_sub_cont=3 nfing=1 $X=83780 $Y=200 $D=22
M34 1 2 1 cpoly_n w=6e-06 l=2e-06 c=7.5402e-14 as=3.0336e-13 ad=1.4976e-12 ps=2.88e-06 pd=2.4338e-06 sim_w=5.76e-06 m_per_maxw=1.04167 numb_sub_cont=3 nfing=1 $X=86300 $Y=200 $D=22