************************************************************************
* auCdl Netlist:
* 
* Library Name:  unn
* Top Cell Name: reduce8h
* View Name:     schematic
* Netlisted on:  Oct 23 16:27:53 2024
************************************************************************

*.EQUATION
*.SCALE METER
*.MEGA
.PARAM



************************************************************************
* Library Name: unn
* Cell Name:    reduce8h
* View Name:    schematic
************************************************************************

.SUBCKT reduce8h b1 d1 g1 s1
*.PININFO b1:B d1:B g1:B s1:B
MM0 d1 g1 s1 b1 pmos_h W=1u L=350n M=8
.ENDS

